<?xml version="1.0" encoding="UTF-8"?>
<!DOCTYPE network SYSTEM "http://www.matsim.org/files/dtd/network_v1.dtd">
<network>

<!-- ====================================================================== -->

	<nodes>
		<node id="1069247183" x="-73.6450058" y="41.0096421" />
		<node id="1069247197" x="-73.6448607" y="41.0096158" />
		<node id="1069247207" x="-73.6447374" y="41.0094509" />
		<node id="1069247209" x="-73.6448932" y="41.0093139" />
		<node id="1069247210" x="-73.6454755" y="41.0099889" />
		<node id="1069247212" x="-73.6451291" y="41.010598" />
		<node id="1069247222" x="-73.6450265" y="41.0094775" />
		<node id="1070113177" x="-73.6242235" y="41.0203503" />
		<node id="1070113178" x="-73.6287476" y="41.0192403" />
		<node id="1070113181" x="-73.6288916" y="41.0195446" />
		<node id="1070113192" x="-73.6193071" y="41.0219555" />
		<node id="1070113194" x="-73.6287775" y="41.0193037" />
		<node id="1070113204" x="-73.6189316" y="41.0218448" />
		<node id="1070113205" x="-73.6240493" y="41.0201728" />
		<node id="1275796472" x="-73.6547589" y="41.0122592" />
		<node id="1300728217" x="-73.6237423" y="41.0235244" />
		<node id="1300728227" x="-73.62389" y="41.0234738" />
		<node id="1300728232" x="-73.6236716" y="41.0233118" />
		<node id="1300728238" x="-73.6237444" y="41.023291" />
		<node id="1300728251" x="-73.6239038" y="41.0233607" />
		<node id="1300728253" x="-73.6238668" y="41.0233215" />
		<node id="1300728256" x="-73.6236056" y="41.0234112" />
		<node id="1300728269" x="-73.623532" y="41.0236119" />
		<node id="1300728287" x="-73.6238616" y="41.0234976" />
		<node id="1457213931" x="-73.6323902" y="41.0200817" />
		<node id="1975953965" x="-73.6291449" y="41.027979" />
		<node id="2239142556" x="-73.6211759" y="41.0245267" />
		<node id="2239323120" x="-73.6272751" y="41.0212296" />
		<node id="2277290194" x="-73.6549595" y="40.9950734" />
		<node id="2366806684" x="-73.6501477" y="41.0015374" />
		<node id="2366806690" x="-73.6549098" y="41.0100482" />
		<node id="2366806701" x="-73.655004" y="41.012432" />
		<node id="2366806734" x="-73.6502539" y="41.0013836" />
		<node id="2366806738" x="-73.6551855" y="41.0122939" />
		<node id="2366806784" x="-73.6582931" y="40.9963095" />
		<node id="2366806788" x="-73.656783" y="41.0050896" />
		<node id="2366806801" x="-73.6502473" y="41.0026271" />
		<node id="2366806819" x="-73.6481557" y="41.0014138" />
		<node id="2366806854" x="-73.6549605" y="41.0124741" />
		<node id="2366806900" x="-73.650132" y="41.0014883" />
		<node id="2366806910" x="-73.6555298" y="41.0120376" />
		<node id="2366806923" x="-73.650064" y="41.0023626" />
		<node id="2366806927" x="-73.65041" y="41.0014661" />
		<node id="2366824905" x="-73.6517807" y="41.0038771" />
		<node id="2366824911" x="-73.6539672" y="41.0014636" />
		<node id="2366824981" x="-73.6537021" y="41.0029102" />
		<node id="2366824985" x="-73.6546881" y="41.0048281" />
		<node id="2366824997" x="-73.6473481" y="41.0071184" />
		<node id="2366832573" x="-73.6494208" y="41.0035525" />
		<node id="2366832588" x="-73.6509852" y="41.0035459" />
		<node id="2366832591" x="-73.6513254" y="41.0033744" />
		<node id="2366832629" x="-73.6494946" y="41.0035178" />
		<node id="2366832699" x="-73.6506192" y="41.0034739" />
		<node id="2366832707" x="-73.6500802" y="41.003452" />
		<node id="2366832722" x="-73.6501623" y="41.0044049" />
		<node id="2366832728" x="-73.6499789" y="41.0035871" />
		<node id="2366832776" x="-73.6516203" y="41.0033607" />
		<node id="2366832786" x="-73.6509003" y="41.0035658" />
		<node id="2366832806" x="-73.6482601" y="41.0044699" />
		<node id="2366832822" x="-73.6518181" y="41.0058624" />
		<node id="2366832823" x="-73.6523408" y="41.0060682" />
		<node id="2366832851" x="-73.6495278" y="41.0036614" />
		<node id="2366832853" x="-73.6488626" y="41.0039723" />
		<node id="2366832860" x="-73.6488955" y="41.0040597" />
		<node id="2366832861" x="-73.6529071" y="41.0044617" />
		<node id="2366832862" x="-73.6510392" y="41.0034272" />
		<node id="2366842419" x="-73.6542038" y="41.0068665" />
		<node id="2366842464" x="-73.6557368" y="41.0052774" />
		<node id="2367224481" x="-73.6549582" y="41.0126079" />
		<node id="2367224516" x="-73.6503414" y="41.0105259" />
		<node id="2367224518" x="-73.6513443" y="41.0113617" />
		<node id="2367224522" x="-73.6508825" y="41.0108405" />
		<node id="2367224590" x="-73.6547113" y="41.0126641" />
		<node id="2367224603" x="-73.6542757" y="41.0132583" />
		<node id="2367224619" x="-73.6540499" y="41.010178" />
		<node id="2367224655" x="-73.6538016" y="41.0103225" />
		<node id="2367224864" x="-73.6526345" y="41.0145889" />
		<node id="2367930720" x="-73.6548625" y="41.0125549" />
		<node id="2367930757" x="-73.6539022" y="41.0195622" />
		<node id="2367930789" x="-73.6526389" y="41.0148083" />
		<node id="2367930794" x="-73.6528306" y="41.0142097" />
		<node id="2367930795" x="-73.6519605" y="41.0147641" />
		<node id="2367930805" x="-73.6505119" y="41.0193902" />
		<node id="2367930808" x="-73.6525499" y="41.0147718" />
		<node id="2367930836" x="-73.6527455" y="41.0149301" />
		<node id="2367930886" x="-73.6507801" y="41.0156907" />
		<node id="2367930902" x="-73.6524377" y="41.0149581" />
		<node id="2367930937" x="-73.6467219" y="41.0156016" />
		<node id="2367935213" x="-73.6470572" y="41.0210516" />
		<node id="2367935241" x="-73.6497582" y="41.0221807" />
		<node id="2367935245" x="-73.6438734" y="41.0232736" />
		<node id="2367935292" x="-73.6464188" y="41.0218043" />
		<node id="2367935316" x="-73.6467326" y="41.0259971" />
		<node id="2367935326" x="-73.6451908" y="41.0226146" />
		<node id="2367940034" x="-73.6549509" y="41.0162149" />
		<node id="2367989195" x="-73.6555893" y="41.0251978" />
		<node id="2367989196" x="-73.6552567" y="41.0278952" />
		<node id="2367989214" x="-73.6529393" y="41.0266183" />
		<node id="2367989229" x="-73.6544494" y="41.0247628" />
		<node id="2367989238" x="-73.6563752" y="41.0243277" />
		<node id="2367989249" x="-73.6548302" y="41.0265232" />
		<node id="2367989272" x="-73.6553533" y="41.0269684" />
		<node id="2367989295" x="-73.6552942" y="41.0244471" />
		<node id="2367989304" x="-73.6551119" y="41.0260234" />
		<node id="2367989325" x="-73.6559219" y="41.0266446" />
		<node id="2367989326" x="-73.6534811" y="41.025115" />
		<node id="2367989341" x="-73.654503" y="41.0251858" />
		<node id="2367989373" x="-73.6574748" y="41.0256997" />
		<node id="2367989379" x="-73.6574211" y="41.026155" />
		<node id="2368005220" x="-73.6564827" y="41.0302503" />
		<node id="2368005261" x="-73.652545" y="41.0301553" />
		<node id="2368005292" x="-73.6564529" y="41.0301037" />
		<node id="2368005316" x="-73.6532531" y="41.0299752" />
		<node id="2368005320" x="-73.6562517" y="41.0302669" />
		<node id="2368005342" x="-73.6523572" y="41.0322333" />
		<node id="2368005397" x="-73.6515982" y="41.0303252" />
		<node id="2368005406" x="-73.6562479" y="41.0301156" />
		<node id="2368024422" x="-73.653276" y="41.0328591" />
		<node id="2368024443" x="-73.6534206" y="41.0329197" />
		<node id="2368024580" x="-73.655828" y="41.0333966" />
		<node id="2368024644" x="-73.6531443" y="41.0329764" />
		<node id="2368024647" x="-73.6534293" y="41.0330015" />
		<node id="2368024660" x="-73.6532775" y="41.0330784" />
		<node id="2368065595" x="-73.6447341" y="41.0093147" />
		<node id="2368065611" x="-73.6452343" y="41.0098175" />
		<node id="2368065612" x="-73.6392064" y="41.0160246" />
		<node id="2368065621" x="-73.6459072" y="41.0063788" />
		<node id="2368065633" x="-73.6392202" y="41.0208614" />
		<node id="2368065635" x="-73.6379404" y="41.0172349" />
		<node id="2368065636" x="-73.6378653" y="41.0178947" />
		<node id="2368065662" x="-73.641151" y="41.0190724" />
		<node id="2368065666" x="-73.6454251" y="41.009952" />
		<node id="2368065675" x="-73.6430949" y="41.0146567" />
		<node id="2368069279" x="-73.644655" y="41.0108988" />
		<node id="2368085811" x="-73.650933" y="41.0274034" />
		<node id="2368085817" x="-73.6502889" y="41.0294456" />
		<node id="2368085834" x="-73.6419047" y="41.0273488" />
		<node id="2368085848" x="-73.644238" y="41.025724" />
		<node id="2368085865" x="-73.6500835" y="41.0294786" />
		<node id="2368086008" x="-73.6470974" y="41.0339449" />
		<node id="2368086039" x="-73.650232" y="41.0292924" />
		<node id="2368086053" x="-73.6500378" y="41.0293385" />
		<node id="2368086076" x="-73.6487844" y="41.0166819" />
		<node id="2368086078" x="-73.6456182" y="41.0184792" />
		<node id="2368095371" x="-73.6418296" y="41.0285711" />
		<node id="2368102142" x="-73.6420034" y="41.0205772" />
		<node id="2368102149" x="-73.6434312" y="41.0197542" />
		<node id="2368102196" x="-73.6446504" y="41.0190454" />
		<node id="2368130400" x="-73.6406518" y="41.0214268" />
		<node id="2368130402" x="-73.6388711" y="41.0207218" />
		<node id="2368130416" x="-73.6411565" y="41.0210887" />
		<node id="2368130417" x="-73.6395394" y="41.0222378" />
		<node id="2368130426" x="-73.6377392" y="41.0213369" />
		<node id="2368130438" x="-73.6399629" y="41.0219208" />
		<node id="2368130448" x="-73.6389485" y="41.0226662" />
		<node id="2368130462" x="-73.6397903" y="41.0220515" />
		<node id="2368130472" x="-73.6393965" y="41.0223445" />
		<node id="2368136509" x="-73.6374752" y="41.0233935" />
		<node id="2368136544" x="-73.6347323" y="41.0208702" />
		<node id="2368136549" x="-73.6362046" y="41.0239896" />
		<node id="2368136554" x="-73.6362731" y="41.0239464" />
		<node id="2368136581" x="-73.6380025" y="41.023173" />
		<node id="2368153666" x="-73.6560733" y="41.0125557" />
		<node id="2372712829" x="-73.6344449" y="41.025145" />
		<node id="2372712835" x="-73.6288458" y="41.0191607" />
		<node id="2372712841" x="-73.6290511" y="41.0195851" />
		<node id="2372712861" x="-73.6341495" y="41.0253489" />
		<node id="2372712863" x="-73.6324557" y="41.019162" />
		<node id="2372712956" x="-73.6372563" y="41.0181638" />
		<node id="2372712966" x="-73.6334743" y="41.0210911" />
		<node id="2372712968" x="-73.6329541" y="41.0230954" />
		<node id="2372712973" x="-73.6285506" y="41.017399" />
		<node id="2372728123" x="-73.640027" y="41.0084583" />
		<node id="2372728157" x="-73.6375602" y="41.0129288" />
		<node id="2372728165" x="-73.6379845" y="41.0089304" />
		<node id="2372728182" x="-73.6372749" y="41.0127042" />
		<node id="2372728190" x="-73.640167" y="41.0084503" />
		<node id="2375232283" x="-73.6256631" y="41.0189575" />
		<node id="2375232291" x="-73.6324362" y="41.0201496" />
		<node id="2375232296" x="-73.6262279" y="41.0194812" />
		<node id="2375232311" x="-73.6365168" y="41.0141705" />
		<node id="2375232409" x="-73.6363108" y="41.0142488" />
		<node id="2375232412" x="-73.6363609" y="41.0141867" />
		<node id="2375232467" x="-73.63683" y="41.0093821" />
		<node id="2375232483" x="-73.6328187" y="41.0122152" />
		<node id="2375232492" x="-73.6242587" y="41.0213834" />
		<node id="2375232503" x="-73.6235613" y="41.020567" />
		<node id="2375232533" x="-73.6241871" y="41.0212251" />
		<node id="2375232553" x="-73.6566131" y="41.0054812" />
		<node id="2375232556" x="-73.6325532" y="41.0187405" />
		<node id="2375232671" x="-73.6544416" y="41.0088249" />
		<node id="2375232687" x="-73.6272482" y="41.0210323" />
		<node id="2375232688" x="-73.6237686" y="41.0200851" />
		<node id="2375232707" x="-73.6272525" y="41.0222961" />
		<node id="2375232782" x="-73.6239457" y="41.0205596" />
		<node id="2375232784" x="-73.6365949" y="41.0143136" />
		<node id="2375232786" x="-73.636404" y="41.0143782" />
		<node id="2375232816" x="-73.6242689" y="41.020388" />
		<node id="2375232820" x="-73.6513246" y="41.0070925" />
		<node id="2375232857" x="-73.6264874" y="41.0198166" />
		<node id="2375232858" x="-73.6269494" y="41.0203223" />
		<node id="2375260783" x="-73.6224653" y="41.0206911" />
		<node id="2375260809" x="-73.6297236" y="41.0128158" />
		<node id="2375260858" x="-73.6279173" y="41.0097996" />
		<node id="2375260881" x="-73.6293111" y="41.0127596" />
		<node id="2375260898" x="-73.623553" y="41.0202602" />
		<node id="2375260963" x="-73.6258546" y="41.0191715" />
		<node id="2375271379" x="-73.6317315" y="41.0267037" />
		<node id="2375271404" x="-73.6318918" y="41.0214302" />
		<node id="2375271424" x="-73.6361754" y="41.0279846" />
		<node id="2375271427" x="-73.6291342" y="41.0259034" />
		<node id="2375271482" x="-73.636026" y="41.0281029" />
		<node id="2375271622" x="-73.630099" y="41.0246144" />
		<node id="2375271740" x="-73.6361968" y="41.0280764" />
		<node id="2375271744" x="-73.6361158" y="41.0279614" />
		<node id="2375271815" x="-73.635994" y="41.0280202" />
		<node id="2375291473" x="-73.6286171" y="41.0237651" />
		<node id="2375291483" x="-73.6289148" y="41.0243212" />
		<node id="2375291485" x="-73.6306262" y="41.0271779" />
		<node id="2375291496" x="-73.6275521" y="41.0267875" />
		<node id="2375291519" x="-73.6286475" y="41.0265712" />
		<node id="2375306707" x="-73.622279" y="41.0111754" />
		<node id="2375306735" x="-73.6291063" y="41.0194609" />
		<node id="2375306746" x="-73.6214765" y="41.0168517" />
		<node id="2375306749" x="-73.6291374" y="41.0195203" />
		<node id="2375306768" x="-73.6212969" y="41.0168545" />
		<node id="2375306784" x="-73.6288537" y="41.0194789" />
		<node id="2375306901" x="-73.629024" y="41.0192883" />
		<node id="2375306904" x="-73.6353033" y="41.0176312" />
		<node id="2375349814" x="-73.6181" y="41.0125503" />
		<node id="2375349819" x="-73.615594" y="41.0190936" />
		<node id="2375349824" x="-73.6179995" y="41.0171007" />
		<node id="2375349875" x="-73.6183132" y="41.0124754" />
		<node id="2375349877" x="-73.6193482" y="41.0169475" />
		<node id="2375349884" x="-73.6194683" y="41.016881" />
		<node id="2375349898" x="-73.6183454" y="41.0170259" />
		<node id="2375349991" x="-73.6180304" y="41.0124304" />
		<node id="2375350057" x="-73.6175788" y="41.0173415" />
		<node id="2375350077" x="-73.6193376" y="41.0167831" />
		<node id="2375350081" x="-73.6182164" y="41.0123518" />
		<node id="2375350091" x="-73.6144311" y="41.0211855" />
		<node id="2375350095" x="-73.61947" y="41.0168571" />
		<node id="2375350110" x="-73.6192563" y="41.0168931" />
		<node id="2375386494" x="-73.6160182" y="41.0220397" />
		<node id="2375386504" x="-73.6266169" y="41.0201171" />
		<node id="2375386505" x="-73.6271257" y="41.0210414" />
		<node id="2375386514" x="-73.6263765" y="41.0198367" />
		<node id="2375386526" x="-73.6273154" y="41.0215773" />
		<node id="2375386535" x="-73.6271566" y="41.0212397" />
		<node id="2375386558" x="-73.6272089" y="41.0216727" />
		<node id="2375386564" x="-73.6260888" y="41.0195004" />
		<node id="2375386566" x="-73.6271982" y="41.0215718" />
		<node id="2375386576" x="-73.627294" y="41.0199369" />
		<node id="2375386627" x="-73.6198437" y="41.0206281" />
		<node id="2375386639" x="-73.6271053" y="41.0209096" />
		<node id="2375386653" x="-73.6267504" y="41.0201094" />
		<node id="2375386662" x="-73.6201411" y="41.0208254" />
		<node id="2375386698" x="-73.6190822" y="41.0214594" />
		<node id="2375386700" x="-73.6272233" y="41.0208561" />
		<node id="2375388016" x="-73.624436" y="41.0217686" />
		<node id="2375388027" x="-73.623602" y="41.0218935" />
		<node id="2375417596" x="-73.6309012" y="41.0315524" />
		<node id="2375417597" x="-73.632932" y="41.0328912" />
		<node id="2375417600" x="-73.6308276" y="41.0316754" />
		<node id="2375417602" x="-73.629422" y="41.0281053" />
		<node id="2375417606" x="-73.6307473" y="41.0315181" />
		<node id="2375417621" x="-73.6328824" y="41.0323206" />
		<node id="2375417627" x="-73.632592" y="41.032383" />
		<node id="2375417628" x="-73.6306952" y="41.0316202" />
		<node id="2375417631" x="-73.6327637" y="41.0323142" />
		<node id="2375417639" x="-73.6318464" y="41.0333035" />
		<node id="2375417656" x="-73.6329062" y="41.0325809" />
		<node id="2375417664" x="-73.6308687" y="41.031661" />
		<node id="2375421710" x="-73.6330051" y="41.0323365" />
		<node id="2375421727" x="-73.6325679" y="41.032412" />
		<node id="2375421728" x="-73.6333594" y="41.0323115" />
		<node id="2375421755" x="-73.6326247" y="41.0326459" />
		<node id="2375456177" x="-73.641234" y="41.0332368" />
		<node id="2375456189" x="-73.6432782" y="41.0359535" />
		<node id="2375490275" x="-73.6553773" y="41.0348539" />
		<node id="2375490280" x="-73.6555153" y="41.034951" />
		<node id="2375490281" x="-73.6552518" y="41.0349191" />
		<node id="2375490310" x="-73.6533587" y="41.036554" />
		<node id="2375490322" x="-73.6552422" y="41.0349591" />
		<node id="2375490326" x="-73.6532461" y="41.0366703" />
		<node id="2375490331" x="-73.6622042" y="41.037793" />
		<node id="2375490332" x="-73.6493266" y="41.0185356" />
		<node id="2375490337" x="-73.6533919" y="41.0367579" />
		<node id="2375490341" x="-73.6541756" y="41.0354947" />
		<node id="2375490357" x="-73.6534216" y="41.0365572" />
		<node id="2375490379" x="-73.6505495" y="41.0329894" />
		<node id="2375490383" x="-73.6496647" y="41.0366008" />
		<node id="2375490385" x="-73.6504654" y="41.0328081" />
		<node id="2375490411" x="-73.6550505" y="41.0377675" />
		<node id="2375490419" x="-73.6504986" y="41.0330005" />
		<node id="2375490423" x="-73.6535166" y="41.0366661" />
		<node id="2375490433" x="-73.6503695" y="41.0329394" />
		<node id="2375490479" x="-73.6506167" y="41.0328898" />
		<node id="2375490483" x="-73.6477602" y="41.0404711" />
		<node id="2375490495" x="-73.6553876" y="41.0350599" />
		<node id="2375534177" x="-73.6436726" y="41.0386955" />
		<node id="2375534187" x="-73.6436885" y="41.0388113" />
		<node id="2375534204" x="-73.6438538" y="41.0386442" />
		<node id="2375534250" x="-73.633199" y="41.0324356" />
		<node id="2375534278" x="-73.6420551" y="41.0360041" />
		<node id="2375534281" x="-73.6439333" y="41.0387828" />
		<node id="2375534290" x="-73.6395122" y="41.0431826" />
		<node id="2375534306" x="-73.6339766" y="41.0353631" />
		<node id="2375556511" x="-73.6309353" y="41.0349902" />
		<node id="2375556515" x="-73.6309516" y="41.0350926" />
		<node id="2375556518" x="-73.6310772" y="41.0349531" />
		<node id="2375556524" x="-73.6309894" y="41.0351125" />
		<node id="2375556530" x="-73.6311353" y="41.035074" />
		<node id="2375556534" x="-73.62925" y="41.0349727" />
		<node id="2375556546" x="-73.6239343" y="41.0360539" />
		<node id="2375556549" x="-73.6240043" y="41.0361455" />
		<node id="2375556575" x="-73.624021" y="41.0360635" />
		<node id="2375556577" x="-73.6239021" y="41.0361134" />
		<node id="2375556594" x="-73.6240293" y="41.0361273" />
		<node id="2375556603" x="-73.6290835" y="41.0394076" />
		<node id="2375562264" x="-73.6330823" y="41.0362956" />
		<node id="2375564582" x="-73.6314736" y="41.0380807" />
		<node id="2375564595" x="-73.6320853" y="41.0398925" />
		<node id="2375564612" x="-73.6315918" y="41.0380518" />
		<node id="2375564626" x="-73.6316136" y="41.038143" />
		<node id="2375564713" x="-73.6316284" y="41.0381209" />
		<node id="2375564717" x="-73.6315089" y="41.0381586" />
		<node id="2376930126" x="-73.6505091" y="41.0036064" />
		<node id="2376930136" x="-73.644209" y="41.0023622" />
		<node id="2376930143" x="-73.6451825" y="41.0019698" />
		<node id="2376930145" x="-73.6479069" y="41.0015072" />
		<node id="2376930154" x="-73.6503154" y="41.0015899" />
		<node id="2376930188" x="-73.6467539" y="41.0012853" />
		<node id="2376930283" x="-73.6479234" y="41.007459" />
		<node id="2376930294" x="-73.6488313" y="41.0068436" />
		<node id="2376930303" x="-73.6464751" y="41.0007472" />
		<node id="2376952385" x="-73.6428339" y="41.016282" />
		<node id="2376952404" x="-73.6427729" y="41.0164018" />
		<node id="2376977242" x="-73.6375435" y="41.0185177" />
		<node id="2377285311" x="-73.6555215" y="41.012709" />
		<node id="2377513135" x="-73.6601579" y="41.00443" />
		<node id="2395643660" x="-73.6731872" y="41.032393" />
		<node id="2403204460" x="-73.6193062" y="41.0222184" />
		<node id="2403204531" x="-73.6389623" y="41.0143084" />
		<node id="2403204569" x="-73.6222173" y="41.0169393" />
		<node id="2403204665" x="-73.6396677" y="41.0135474" />
		<node id="2403205201" x="-73.6194762" y="41.02234" />
		<node id="2403205373" x="-73.6426569" y="41.0112734" />
		<node id="2403229187" x="-73.6289335" y="41.0293762" />
		<node id="2403229210" x="-73.6286466" y="41.0291757" />
		<node id="2404421402" x="-73.624793" y="41.0303855" />
		<node id="2404421407" x="-73.6240895" y="41.0233989" />
		<node id="2404421431" x="-73.6266122" y="41.0298905" />
		<node id="2404421448" x="-73.6259989" y="41.0269299" />
		<node id="2404421460" x="-73.6272116" y="41.0309845" />
		<node id="2404421468" x="-73.6238223" y="41.0270717" />
		<node id="2404421471" x="-73.6263076" y="41.028764" />
		<node id="2404421476" x="-73.6242532" y="41.0248265" />
		<node id="2404421494" x="-73.6248807" y="41.0253556" />
		<node id="2404421549" x="-73.62489" y="41.0248671" />
		<node id="2404421569" x="-73.6255594" y="41.024779" />
		<node id="2404421590" x="-73.6241827" y="41.0290159" />
		<node id="2404421595" x="-73.6268692" y="41.0312941" />
		<node id="2404494462" x="-73.6232346" y="41.0345715" />
		<node id="2404494502" x="-73.6216261" y="41.0320196" />
		<node id="2404494525" x="-73.6223754" y="41.0301186" />
		<node id="2404494532" x="-73.6229784" y="41.0341983" />
		<node id="2404494566" x="-73.6217438" y="41.0322412" />
		<node id="2404494570" x="-73.6248004" y="41.0329818" />
		<node id="2404494583" x="-73.6257353" y="41.0322404" />
		<node id="2404494586" x="-73.624594" y="41.0331587" />
		<node id="2404494610" x="-73.6253966" y="41.0316764" />
		<node id="2404494629" x="-73.6216495" y="41.0322077" />
		<node id="2404494671" x="-73.6221191" y="41.0324628" />
		<node id="2404494691" x="-73.6216527" y="41.0318709" />
		<node id="2404494695" x="-73.6216395" y="41.0320059" />
		<node id="2404494697" x="-73.6235705" y="41.0342023" />
		<node id="2404494713" x="-73.622851" y="41.0349562" />
		<node id="2404494715" x="-73.6256305" y="41.0323173" />
		<node id="2404494717" x="-73.6219572" y="41.0320955" />
		<node id="2404494737" x="-73.6218152" y="41.031817" />
		<node id="2404494741" x="-73.6218974" y="41.0320002" />
		<node id="2404494752" x="-73.6212249" y="41.0320997" />
		<node id="2404505432" x="-73.6217742" y="41.0303835" />
		<node id="2404505454" x="-73.6178098" y="41.0308298" />
		<node id="2404505455" x="-73.6194602" y="41.0303069" />
		<node id="2404505463" x="-73.6217985" y="41.0302485" />
		<node id="2404523091" x="-73.6224689" y="41.0271704" />
		<node id="2404523151" x="-73.6195373" y="41.0285135" />
		<node id="2405731105" x="-73.6229874" y="41.0247439" />
		<node id="2405731134" x="-73.6217289" y="41.0246676" />
		<node id="2405767054" x="-73.6024807" y="41.0264531" />
		<node id="2405767060" x="-73.6025326" y="41.0266561" />
		<node id="2405767065" x="-73.6024091" y="41.0265808" />
		<node id="2405767080" x="-73.6026622" y="41.0264875" />
		<node id="2405767085" x="-73.602687" y="41.0265604" />
		<node id="2405767104" x="-73.6056184" y="41.0260677" />
		<node id="2405784187" x="-73.6066896" y="41.0205213" />
		<node id="2405784206" x="-73.6073322" y="41.0177121" />
		<node id="2405784296" x="-73.6041396" y="41.0164933" />
		<node id="2406057133" x="-73.6126631" y="41.0131797" />
		<node id="2406057162" x="-73.6124219" y="41.0133128" />
		<node id="2406057192" x="-73.6126794" y="41.0133383" />
		<node id="2406057205" x="-73.6124651" y="41.0131759" />
		<node id="2406057209" x="-73.6099301" y="41.0124201" />
		<node id="2406062214" x="-73.6117057" y="41.0176314" />
		<node id="2406096232" x="-73.6114536" y="41.0231338" />
		<node id="2406096236" x="-73.6139569" y="41.0211834" />
		<node id="2406096246" x="-73.6141598" y="41.021174" />
		<node id="2406098025" x="-73.6191356" y="41.0220965" />
		<node id="2406098026" x="-73.6186993" y="41.021836" />
		<node id="2406098030" x="-73.6179579" y="41.021784" />
		<node id="2406098031" x="-73.6187894" y="41.0218133" />
		<node id="2406103492" x="-73.6197658" y="41.0227043" />
		<node id="2406103549" x="-73.6184812" y="41.0217569" />
		<node id="2406103589" x="-73.6187162" y="41.0216716" />
		<node id="2406103604" x="-73.616641" y="41.0236923" />
		<node id="2406123054" x="-73.6186312" y="41.0215351" />
		<node id="2406123066" x="-73.6154588" y="41.0230273" />
		<node id="2406123081" x="-73.615893" y="41.023102" />
		<node id="2406123123" x="-73.6184622" y="41.0215614" />
		<node id="2406135223" x="-73.615373" y="41.0233088" />
		<node id="2406191598" x="-73.6197435" y="41.0363855" />
		<node id="2406191600" x="-73.6203986" y="41.037877" />
		<node id="2406191706" x="-73.6209325" y="41.0360739" />
		<node id="2406191716" x="-73.6201146" y="41.0378557" />
		<node id="2406191735" x="-73.6172334" y="41.0369731" />
		<node id="2406607728" x="-73.6139832" y="41.0369903" />
		<node id="2406607730" x="-73.6157113" y="41.03088" />
		<node id="2406607738" x="-73.6095541" y="41.0367776" />
		<node id="2406607753" x="-73.612592" y="41.0287152" />
		<node id="2406607788" x="-73.6097315" y="41.0367066" />
		<node id="2406607809" x="-73.6117743" y="41.0369636" />
		<node id="2406607823" x="-73.612721" y="41.0288288" />
		<node id="2406607849" x="-73.617746" y="41.0242489" />
		<node id="2406607875" x="-73.6125531" y="41.0365953" />
		<node id="2406607902" x="-73.6166828" y="41.0322467" />
		<node id="2406607913" x="-73.6104313" y="41.0368422" />
		<node id="2406607929" x="-73.6155489" y="41.0307169" />
		<node id="2406607933" x="-73.6165403" y="41.0321376" />
		<node id="2406607945" x="-73.6165329" y="41.0322409" />
		<node id="2406607994" x="-73.6095759" y="41.0366903" />
		<node id="2406608004" x="-73.6147669" y="41.0322874" />
		<node id="2406608005" x="-73.60932" y="41.036724" />
		<node id="2406608018" x="-73.6108651" y="41.0368855" />
		<node id="2406608019" x="-73.6111624" y="41.0369106" />
		<node id="2406608022" x="-73.6125885" y="41.0369776" />
		<node id="2406608029" x="-73.6153379" y="41.0309325" />
		<node id="2406608051" x="-73.6166982" y="41.0321527" />
		<node id="2408396766" x="-73.6130873" y="41.0255156" />
		<node id="2408396768" x="-73.6131924" y="41.0256122" />
		<node id="2408396836" x="-73.6129198" y="41.0255896" />
		<node id="2408396842" x="-73.6129925" y="41.0257112" />
		<node id="254189314" x="-73.6563194" y="41.0099351" />
		<node id="254189321" x="-73.6599976" y="41.0108567" />
		<node id="254235521" x="-73.6562444" y="41.0119001" />
		<node id="254235567" x="-73.6580255" y="41.0127928" />
		<node id="254235611" x="-73.6556042" y="41.0119764" />
		<node id="254235615" x="-73.6561109" y="41.0118539" />
		<node id="254235624" x="-73.6561328" y="41.0125395" />
		<node id="254570635" x="-73.6558114" y="41.0115645" />
		<node id="2583159260" x="-73.602787" y="41.0295369" />
		<node id="2583159282" x="-73.6057031" y="41.0277611" />
		<node id="2946086961" x="-73.6559087" y="41.0022358" />
		<node id="3113774525" x="-73.5990958" y="41.0328122" />
		<node id="3113774526" x="-73.5989005" y="41.0328353" />
		<node id="3113774931" x="-73.5991319" y="41.0330628" />
		<node id="3128284953" x="-73.5964883" y="41.0401594" />
		<node id="315293178" x="-73.605728" y="41.027281" />
		<node id="316215250" x="-73.6543182" y="41.0135511" />
		<node id="316222706" x="-73.6497019" y="41.0051354" />
		<node id="316226225" x="-73.6502325" y="41.0044967" />
		<node id="316226264" x="-73.6498525" y="41.0029117" />
		<node id="316226266" x="-73.6491033" y="41.0031416" />
		<node id="316227191" x="-73.6300523" y="41.0194062" />
		<node id="316227197" x="-73.6240251" y="41.0200635" />
		<node id="316227199" x="-73.6298292" y="41.0192333" />
		<node id="316227201" x="-73.6267272" y="41.0190923" />
		<node id="3162703151" x="-73.6338476" y="41.0156002" />
		<node id="316642144" x="-73.6323548" y="41.019612" />
		<node id="316642151" x="-73.6380033" y="41.0156225" />
		<node id="3166773741" x="-73.6365416" y="41.0150263" />
		<node id="320495394" x="-73.5994103" y="41.0398987" />
		<node id="3354756199" x="-73.6289979" y="41.019228" />
		<node id="3358507277" x="-73.6214304" y="41.0359006" />
		<node id="3358507284" x="-73.6378948" y="41.0384835" />
		<node id="3358507288" x="-73.6184247" y="41.0408573" />
		<node id="3358507291" x="-73.618538" y="41.0409175" />
		<node id="3358511694" x="-73.6182797" y="41.0410159" />
		<node id="3358511698" x="-73.6184909" y="41.0410945" />
		<node id="3533555015" x="-73.6172493" y="41.0163233" />
		<node id="3533555020" x="-73.6171447" y="41.016471" />
		<node id="3533555021" x="-73.617383" y="41.0164915" />
		<node id="3566352015" x="-73.6436547" y="41.0213483" />
		<node id="3566352028" x="-73.6438628" y="41.0220294" />
		<node id="3566352031" x="-73.6428865" y="41.0221695" />
		<node id="3566352042" x="-73.6427275" y="41.0228988" />
		<node id="3575444395" x="-73.5942811" y="41.039479" />
		<node id="3626369279" x="-73.6511455" y="41.0124093" />
		<node id="3626369286" x="-73.6480354" y="41.0138555" />
		<node id="3626369287" x="-73.6490034" y="41.0140066" />
		<node id="3626369289" x="-73.6482434" y="41.0142623" />
		<node id="3626434094" x="-73.649636" y="41.0144768" />
		<node id="3626434098" x="-73.6483646" y="41.0148113" />
		<node id="3626434102" x="-73.6495888" y="41.0149017" />
		<node id="3626434108" x="-73.6499996" y="41.0152969" />
		<node id="3626434111" x="-73.6491605" y="41.0158064" />
		<node id="3626434112" x="-73.6491626" y="41.016004" />
		<node id="3639384659" x="-73.6504549" y="41.0126065" />
		<node id="3639384665" x="-73.6493388" y="41.0132439" />
		<node id="3641467767" x="-73.6253521" y="41.0143932" />
		<node id="3641467773" x="-73.6255356" y="41.0148408" />
		<node id="3650930140" x="-73.644454" y="41.0016258" />
		<node id="3650930141" x="-73.6482452" y="41.0019829" />
		<node id="3655955827" x="-73.6472099" y="41.0092212" />